tests/fuzzer/corpus_json/24_columnar_21_random_003.json
{
  "version": "1.0",
  "type": "input",
  "is_batch": false,
  "attributes": {
    "node": [
      "id",
      "u_rated"
    ],
    "source": [
      "id",
      "node",
      "status",
      "u_ref",
      "u_ref_angle",
      "sk",
      "rx_ratio",
      "z01_ratio"
    ],
    "line": [
      "id",
      "from_node",
      "to_node",
      "from_status",
      "to_status",
      "r1",
      "x1",
      "c1",
      "tan1",
      "r0",
      "x0",
      "c0",
      "tan0",
      "i_n"
    ],
    "sym_load": [
      "id",
      "node",
      "status",
      "type",
      "p_specified",
      "q_specified"
    ]
  },
  "data": {
    "node": [
      [
        0,
        380000.0
      ],
      [
        1,
        380000.0
      ],
      [
        2,
        380000.0
      ],
      [
        3,
        380000.0
      ],
      [
        4,
        380000.0
      ]
    ],
    "source": [
      [
        5,
        0,
        1,
        0.9739910333096159,
        0.0,
        544274802.3734223,
        0.30196001929809724,
        1.0
      ]
    ],
    "line": [
      [
        6,
        0,
        1,
        1,
        1,
        0.32764429619906554,
        0.06583995777437068,
        8.374690820964599e-07,
        0.0,
        0.3,
        0.3,
        1e-09,
        0.0,
        266.76047418472757
      ],
      [
        7,
        1,
        2,
        1,
        1,
        1.1716548052334819,
        4.978224177552314,
        4.702635075224479e-07,
        0.0,
        0.3,
        0.3,
        1e-09,
        0.0,
        838.0968367616449
      ],
      [
        8,
        2,
        3,
        1,
        1,
        2.3817660434966745,
        3.19534070272081,
        1.5061642402352394e-07,
        0.0,
        0.3,
        0.3,
        1e-09,
        0.0,
        638.5120517023365
      ],
      [
        9,
        3,
        4,
        1,
        1,
        4.340226535716484,
        2.6159060519165065,
        7.412518562014902e-07,
        0.0,
        0.3,
        0.3,
        1e-09,
        0.0,
        674.6973606158966
      ]
    ],
    "sym_load": [
      [
        10,
        1,
        1,
        2,
        -91442.19413210801,
        5601.529781671128
      ],
      [
        11,
        3,
        1,
        2,
        43764.78481316063,
        7576.256005109633
      ]
    ]
  }
}
